Circuit: * D:\Prog_git\lab_works\lab3\simulation\Common-sourse_amplifier.asc

WARNING: Node N003 is floating.

WARNING: Less than two connections to node N003.  This node is used by C2.
Direct Newton iteration for .op point succeeded.

Date: Sun Mar 29 22:25:28 2020
Total elapsed time: 0.083 seconds.

tnom = 27
temp = 27
method = modified trap
totiter = 2092
traniter = 2084
tranpoints = 1042
accept = 1042
rejected = 0
matrix size = 10
fillins = 1
solver = Normal
Matrix Compiler1: 498 bytes object code size  0.1/0.1/[0.0]
Matrix Compiler2: off  [0.1]/0.1/0.1

