Circuit: * D:\Prog_git\lab_works\lab3\simulation\Draft1.asc

Direct Newton iteration for .op point succeeded.

Date: Mon Apr 13 21:58:42 2020
Total elapsed time: 0.090 seconds.

tnom = 27
temp = 27
method = modified trap
totiter = 2087
traniter = 2082
tranpoints = 1042
accept = 1042
rejected = 0
matrix size = 7
fillins = 0
solver = Normal
Matrix Compiler1:      15 opcodes  0.1/[0.0]/0.0
Matrix Compiler2: off  [0.0]/0.1/0.1

