Circuit: * D:\Prog_git\lab_works\lab3\simulation\NMOS1.asc

Direct Newton iteration for .op point succeeded.

Date: Sat Mar 28 20:36:36 2020
Total elapsed time: 0.089 seconds.

tnom = 27
temp = 27
method = modified trap
totiter = 2090
traniter = 2082
tranpoints = 1042
accept = 1042
rejected = 0
matrix size = 9
fillins = 1
solver = Normal
Matrix Compiler1: 448 bytes object code size  0.1/0.1/[0.0]
Matrix Compiler2: 675 bytes object code size  0.1/0.1/[0.1]

