Circuit: * D:\Prog_git\lab_works\lab3\simulation\NMOS.asc

.step v2=1.7
.step v2=1.8
.step v2=1.9
.step v2=2
.step v2=2.1

Date: Sat Mar 28 19:54:45 2020
Total elapsed time: 0.206 seconds.

tnom = 27
temp = 27
method = trap
totiter = 1025
traniter = 0
tranpoints = 0
accept = 0
rejected = 0
matrix size = 7
fillins = 0
solver = Normal
Matrix Compiler1: 214 bytes object code size  0.1/0.1/[0.0]
Matrix Compiler2: 481 bytes object code size  0.1/0.1/[0.1]

