Circuit: * C:\Users\MrGoshak\Desktop\Analog_Design\Lab1\Simulation\RC\RC.asc


Date: Sun Feb 16 23:57:47 2020
Total elapsed time: 0.038 seconds.

tnom = 27
temp = 27
method = trap
totiter = 0
traniter = 0
tranpoints = 0
accept = 0
rejected = 0
matrix size = 3
fillins = 0
solver = Normal

