Circuit: * D:\Prog_git\lab_works\lab4\simulation\Common-emitter amplifier.asc

Direct Newton iteration for .op point succeeded.

Date: Fri Apr 17 02:24:44 2020
Total elapsed time: 0.138 seconds.

tnom = 27
temp = 27
method = modified trap
totiter = 7774
traniter = 7769
tranpoints = 3882
accept = 2418
rejected = 1464
matrix size = 9
fillins = 0
solver = Normal
Matrix Compiler1:      25 opcodes  0.1/[0.1]/0.1
Matrix Compiler2: off  [0.1]/0.1/0.1

