Circuit: * D:\Prog_git\lab_works\lab4\simulation\Draft1.asc

WARNING: Less than two connections to node NC_01.  This node is used by Q1.
Direct Newton iteration for .op point succeeded.

Date: Thu Apr 16 02:55:08 2020
Total elapsed time: 0.072 seconds.

tnom = 27
temp = 27
method = modified trap
totiter = 2095
traniter = 2082
tranpoints = 1042
accept = 1042
rejected = 0
matrix size = 6
fillins = 0
solver = Normal
Matrix Compiler1: 280 bytes object code size  0.1/0.1/[0.0]
Matrix Compiler2: off  [0.0]/0.1/0.1

