Circuit: * D:\Prog_git\lab_works\Lab2\Simulation\Voltage_restricter\Draft2.asc

.OP point found by inspection.

Date: Fri Mar 06 15:54:12 2020
Total elapsed time: 0.074 seconds.

tnom = 27
temp = 27
method = modified trap
totiter = 2200
traniter = 2200
tranpoints = 1043
accept = 1043
rejected = 0
matrix size = 5
fillins = 0
solver = Normal
Matrix Compiler1: 150 bytes object code size  0.0/0.0/[0.0]
Matrix Compiler2: 321 bytes object code size  0.0/0.0/[0.0]

