Circuit: * D:\Prog_git\lab_works\Lab2\Simulation\Voltage_restricter\Draft1.asc


Date: Sat Mar 21 22:27:45 2020
Total elapsed time: 0.080 seconds.

tnom = 27
temp = 27
method = trap
totiter = 0
traniter = 0
tranpoints = 0
accept = 0
rejected = 0
matrix size = 4
fillins = 0
solver = Normal

