Circuit: * D:\Prog_git\lab_works\Lab2\Simulation\Half_wave_rectifier\half_wave_rectifier2.asc

.OP point found by inspection.

Date: Wed Mar 04 20:06:08 2020
Total elapsed time: 0.069 seconds.

tnom = 27
temp = 27
method = modified trap
totiter = 2376
traniter = 2376
tranpoints = 1103
accept = 1080
rejected = 23
matrix size = 4
fillins = 0
solver = Normal
Matrix Compiler1: 100 bytes object code size  0.0/0.0/[0.0]
Matrix Compiler2:      21 opcodes  0.0/[0.0]/0.0

