Circuit: * D:\Prog_git\lab_works\Lab2\Simulation\Voltage_Double\Voltage_Double.asc

.OP point found by inspection.

Date: Thu Mar 05 18:12:25 2020
Total elapsed time: 0.100 seconds.

tnom = 27
temp = 27
method = modified trap
totiter = 17333
traniter = 17333
tranpoints = 5400
accept = 3576
rejected = 1824
matrix size = 6
fillins = 0
solver = Normal
Matrix Compiler1: 200 bytes object code size  0.1/0.0/[0.0]
Matrix Compiler2: 394 bytes object code size  0.0/0.1/[0.0]

