Circuit: * C:\Users\MrGoshak\Desktop\Analog_Design\Lab1\Simulation\1\Voltage_summer1.asc

Direct Newton iteration for .op point succeeded.

Date: Sun Feb 16 15:53:22 2020
Total elapsed time: 0.088 seconds.

tnom = 27
temp = 27
method = modified trap
totiter = 2085
traniter = 2082
tranpoints = 1042
accept = 1042
rejected = 0
matrix size = 5
fillins = 0
solver = Normal
Matrix Compiler1: 114 bytes object code size  0.1/0.0/[0.0]
Matrix Compiler2: 301 bytes object code size  0.0/0.1/[0.0]

