Circuit: * C:\Users\MrGoshak\Desktop\Analog_Design\Lab1\Simulation\2\Voltage_summer2.asc

Direct Newton iteration for .op point succeeded.

Date: Sun Feb 16 16:18:55 2020
Total elapsed time: 0.175 seconds.

tnom = 27
temp = 27
method = modified trap
totiter = 4687
traniter = 4684
tranpoints = 2343
accept = 1945
rejected = 398
matrix size = 5
fillins = 0
solver = Normal
Matrix Compiler1: 114 bytes object code size  0.0/0.0/[0.0]
Matrix Compiler2: 301 bytes object code size  0.0/0.0/[0.0]

