Circuit: * D:\Prog_git\lab_works\Lab2\Simulation\Full_wave_rectifier\Full_wave_rectifier1.asc

.OP point found by inspection.

Date: Thu Mar 05 17:32:28 2020
Total elapsed time: 0.063 seconds.

tnom = 27
temp = 27
method = modified trap
totiter = 2346
traniter = 2346
tranpoints = 1066
accept = 1066
rejected = 0
matrix size = 8
fillins = 0
solver = Normal
Matrix Compiler1: 318 bytes object code size  0.1/0.1/[0.0]
Matrix Compiler2: off  [0.0]/0.1/0.1

